---- Talvez ---- 
-- Evoluir os para usar memoria local (e nao do java)
 
-- adicionar ARM9
-- melhorar Log global conforme abaixo
system.mem_ctrl.bw_total::total 142940409 # Total bandwidth to/from this memory (bytes/s)
---------- Begin Simulation Statistics ----------
sim_seconds                                  0.000346 		# Number of seconds simulated
sim_ticks                                   345518000 		# Number of ticks simulated
final_tick                                  345518000 		# Number of ticks from beginning of simulation (restored from checkpoints and never reset)
sim_freq                                1000000000000 		# Frequency of simulated ticks
host_inst_rate                                 144400		# Simulator instruction rate (inst/s)
host_op_rate                                   260550		# Simulator op (including micro ops) rate (op/s)
host_tick_rate                             8718625183		# Simulator tick rate (ticks/s)
host_mem_usage                                 778640 		# Number of bytes of host memory used
host_seconds                                     0.04 		# Real time elapsed on the host
sim_insts                                        5712 		# Number of instructions simulated
sim_ops                                         10314 		# Number of ops (including micro ops) simulated
-- watch http://learning.gem5.org/book/part1/gem5_stats.html
